 17 
 vinylpyrrolidone 
C1	0.99377	1.08380	-0.00993
C2	-0.34080	1.00673	-0.01098
N3	-1.14401	0.94612	1.12109
C4	-0.63163	0.97874	2.48735
C5	-1.86229	0.61809	3.34233
C6	-3.05812	1.03496	2.47462
C7	-2.52953	0.98614	1.04829
O8	-3.17400	1.00393	0.02075
H9	1.52721	1.12188	-0.94982
H10	1.58302	1.11274	0.89819
H11	-0.91924	0.98788	-0.92723
H12	-0.23997	1.97708	2.71957
H13	0.18443	0.26170	2.60476
H14	-1.83989	1.11033	4.31508
H15	-1.88394	-0.46071	3.51437
H16	-3.37460	2.06486	2.67387
H17	-3.93644	0.39771	2.57669
